$ -------------------------------------------------------------------- $
$ WAVEWATCH III Spatial and temporal tracking of wave systems(ver 1.03)$
$--------------------------------------------------------------------- $
$ File name for raw partition data
$
  'partition.raw'
$
$ First time level (yyyymmdd hhmmss) and number of time levels 
$ to process.
$
  #TbegOut# #DeltaOut#  #NumOfOutTimes#
$
$ Domain over which tracking is to be performed. First line: longitude
$ limits; second line: latitude limits. For entire domain, use -999. 999
$
  -999. 999.
  -999. 999.
$
$ Parameters of tracking algorithm ----------------------------------- $
$   - dirKnob, perKnob, hsKnob, wetPts, dirTimeKnob, tpTimeKnob
$   - seedLat, seedLon
 #WvTrkKnobs#
  0. 0.
$
$ Output points ------------------------------------------------------ $
$ Longitude, latitude. End with 0. 0. string on last line.
$
#outputpointshere#
    0.    0.
$ -------------------------------------------------------------------- $
$ End of input file                                                    $
$ -------------------------------------------------------------------- $
